*SPEF "IEEE 1481-1998"
*DESIGN "ATM"
*DATE "Sat Nov 23 13:24:21 2024"
*VENDOR "Cadence Design Systems, Inc."
*PROGRAM "Innovus"
*VERSION "20.14-s095_1"
*DESIGN_FLOW "COUPLING C" "PIN_CAP NONE" "NAME_SCOPE LOCAL"
*DIVIDER /
*DELIMITER :
*BUS_DELIMITER []
*T_UNIT 1 NS
*C_UNIT 1 PF
*R_UNIT 1 OHM
*L_UNIT 1 HENRY

// MMMC spef file for corner 'rc'

*NAME_MAP

*1 clk
*2 reset
*3 pin_input[3]
*4 pin_input[2]
*5 pin_input[1]
*6 pin_input[0]
*7 amount_input[7]
*8 amount_input[6]
*9 amount_input[5]
*10 amount_input[4]
*11 amount_input[3]
*12 amount_input[2]
*13 amount_input[1]
*14 amount_input[0]
*15 biometric_authenticated
*16 change_pin_request
*17 new_pin[3]
*18 new_pin[2]
*19 new_pin[1]
*20 new_pin[0]
*21 inactivity_timeout
*22 transaction_success
*23 transaction_error
*24 pin_change_success
*25 account_locked
*26 timeout_error
*27 login_attempts[3]
*28 login_attempts[2]
*29 login_attempts[1]
*30 login_attempts[0]
*31 current_pin[3]
*32 current_pin[2]
*33 current_pin[1]
*34 current_pin[0]
*35 n_0
*36 n_1
*37 n_2
*38 n_3
*39 n_4
*40 n_5
*41 n_6
*42 n_7
*43 n_8
*44 n_9
*45 n_10
*46 n_11
*47 n_12
*48 n_13
*49 n_14
*50 n_15
*51 n_16
*52 n_17
*53 n_18
*54 n_19
*55 n_20
*56 n_22
*57 n_23
*58 n_24
*59 n_25
*60 n_26
*61 n_27
*62 n_28
*63 n_29
*64 n_31
*65 n_32
*66 n_33
*67 n_34
*68 n_35
*69 n_36
*70 n_37
*71 n_39
*72 n_40
*73 n_41
*74 n_42
*75 n_43
*76 n_44
*77 n_46
*78 n_47
*79 n_48
*80 n_49
*81 n_71
*82 n_72
*83 transaction_success_reg
*84 login_attempts_reg\[3\]
*85 pin_change_success_reg
*86 g1629__2398
*87 transaction_error_reg
*88 current_pin_reg\[1\]
*89 current_pin_reg\[3\]
*90 g1639__5107
*91 current_pin_reg\[0\]
*92 current_pin_reg\[2\]
*93 g1631__4319
*94 g1645__8428
*95 g1633__5526
*96 login_attempts_reg\[1\]
*97 g1647__6783
*98 g1646__3680
*99 g1638__1617
*100 g1658__2802
*101 g1640__1705
*102 g1648__5122
*103 g1651__8246
*104 g1653__7098
*105 g1660__6131
*106 g1656__1881
*107 g1652__7482
*108 g1657__4733
*109 g1662__6161
*110 g1663__9315
*111 g1666__2883
*112 g1664__2346
*113 g1661__1666
*114 g1668
*115 g1659__7410
*116 g1672__6417
*117 g1669__5477
*118 g1667__2398
*119 g1671__5107
*120 g1673__6260
*121 g1674__4319
*122 timeout_error_reg
*123 g1675__8428
*124 g1676__5526
*125 g1677__6783
*126 g1678__3680
*127 g1679__1617
*128 g1684__2802
*129 g1680__1705
*130 g1682__5122
*131 g1683__8246
*132 g1681__7098
*133 g1685
*134 g1687
*135 g1690
*136 account_locked_reg
*137 login_attempts_reg\[0\]
*138 login_attempts_reg\[2\]
*139 g2
*140 g1710


*PORTS

*1 I *C 20.445 0
*2 I *C 0 23.055
*3 I *C 17.835 40.89
*4 I *C 20.155 40.89
*5 I *C 10.295 40.89
*6 I *C 19.865 40.89
*7 I *C 42.63 17.835
*8 I *C 42.63 19.285
*9 I *C 42.63 18.995
*10 I *C 42.63 23.055
*11 I *C 42.63 23.055
*12 I *C 42.63 23.345
*13 I *C 42.63 25.955
*14 I *C 42.63 25.665
*15 I *C 42.63 18.125
*16 I *C 42.63 16.965
*17 I *C 13.775 40.89
*18 I *C 33.205 40.89
*19 I *C 13.485 40.89
*20 I *C 28.855 40.89
*21 I *C 28.275 0
*22 O *C 29.145 0
*23 O *C 17.545 40.89
*24 O *C 42.63 24.505
*25 O *C 29.435 0
*26 O *C 28.855 0


*D_NET *1 0.00853014

*CONN
*P *1 I *C 20.445 0 *L 0
*I *138:CK I *C 14.645 23.055 *L 0.0018 *D DFFRX1
*I *137:CK I *C 15.805 7.395 *L 0.0018 *D DFFRX1
*I *136:CK I *C 25.665 15.225 *L 0.0018 *D DFFRX1
*I *122:CK I *C 25.375 7.395 *L 0.00185 *D SDFFRHQX1
*I *96:CK I *C 14.065 10.005 *L 0.00182 *D DFFRHQX1
*I *92:CK I *C 26.535 30.885 *L 0.00185 *D SDFFRHQX1
*I *91:CK I *C 24.215 28.275 *L 0.00185 *D SDFFRHQX1
*I *89:CK I *C 14.355 25.665 *L 0.00176 *D SDFFSHQX1
*I *88:CK I *C 14.355 28.275 *L 0.00176 *D SDFFSHQX1
*I *87:CK I *C 18.125 25.665 *L 0.00182 *D DFFRHQX1
*I *85:CK I *C 29.725 23.055 *L 0.00182 *D DFFRHQX1
*I *84:CK I *C 14.065 17.835 *L 0.00182 *D DFFRHQX1
*I *83:CK I *C 28.275 10.005 *L 0.00182 *D DFFRHQX1

*CAP
1 *85:CK 0.000176789
2 *83:CK 0.000186981
3 *92:CK 0.000189009
4 *136:CK 0.000316505
5 *122:CK 7.56987e-05
6 *91:CK 6.99213e-05
7 *1 2.18742e-05
8 *87:CK 8.4159e-05
9 *137:CK 1.21042e-05
10 *138:CK 1.12698e-05
11 *88:CK 7.5403e-05
12 *89:CK 2.1758e-05
13 *84:CK 1.1386e-05
14 *96:CK 1.48398e-05
15 *1:14 0.000313875
16 *1:15 0.000264233
17 *1:16 0.000216957
18 *1:17 0.000474091
19 *1:18 0.000517967
20 *1:19 0.000256417
21 *1:20 0.000395773
22 *1:21 9.90621e-05
23 *1:22 0.000547467
24 *1:23 0.000443873
25 *1:24 0.00051183
26 *1:25 0.000318881
27 *1:26 0.000411511
28 *1:27 0.000216957
29 *1:28 0.000532986
30 *1:29 0.00069218875
31 *1:30 0.00059038
32 *1:18 *80:15 0.000458002109

*RES
1 *96:CK *1:30 1.45375
2 *84:CK *1:29 1.45375
3 *1:30 *1:28 2.52745
4 *1:29 *1:30 4.01143
5 *1:27 *1:26 1.19135
6 *1:25 *1:27 0.385818
7 *89:CK *1:27 1.45375
8 *88:CK *1:25 1.96377
9 *1:26 *1:29 2.46424
10 *138:CK *1:26 1.45375
11 *1:24 *1:23 8.57698917
12 *1:28 *1:24 2.01756
13 *137:CK *1:24 1.45375
14 *1:22 *1:25 3.01168
15 *87:CK *1:22 3.34698
16 *1:23 *1 0.254943
17 *1:21 *1:20 1.50741
18 *1:20 *1:22 2.92714
19 *91:CK *1:21 1.96377
20 *1:19 *1:18 1.50741
21 *1:18 *1:28 3.9901
22 *122:CK *1:19 1.96377
23 *136:CK *1:17 3.29228
24 *1:17 *1:19 1.02854
25 *1:16 *1:15 1.50741
26 *1:15 *1:20 0.882879
27 *92:CK *1:16 3.08222
28 *83:CK *1:18 4.5683
29 *85:CK *1:14 2.95802
30 *1:14 *1:15 2.76315
*END

*D_NET *2 0.000780344

*CONN
*P *2 I *C 0 23.055 *L 0
*I *135:A I *C 9.725 23.1175 *L 0.00172 *D INVXL

*CAP
1 *135:A 0.000183402
2 *2 0.00020677
3 *2:2 0.000390171992

*RES
1 *2:2 *2 5.21540642
2 *135:A *2:2 3.00919
*END

*D_NET *3 0.000984788

*CONN
*P *3 I *C 17.835 40.89 *L 0
*I *124:S0 I *C 17.835 30.885 *L 0.00391 *D MXI2XL

*CAP
1 *3 0.000492393984
2 *124:S0 0.000492393984

*RES
1 *124:S0 *3 6.42085
*END

*D_NET *4 0.000891924

*CONN
*P *4 I *C 20.155 40.89 *L 0
*I *126:B I *C 20.155 30.885 *L 0.00367 *D XNOR2XL

*CAP
1 *4 0.000445961953
2 *126:B 0.000445961953

*RES
1 *126:B *4 5.68593
*END

*D_NET *5 0.000630736

*CONN
*P *5 I *C 10.295 40.89 *L 0
*I *125:S0 I *C 10.295 33.495 *L 0.00391 *D MXI2XL

*CAP
1 *125:S0 0.000280263
2 *5 3.51051e-05
3 *5:2 0.000315368184

*RES
1 *5:2 *5 0.494951
2 *125:S0 *5:2 4.50515747
*END

*D_NET *6 0.000700951

*CONN
*P *6 I *C 19.865 40.89 *L 0
*I *127:B I *C 19.865 33.495 *L 0.00367 *D XNOR2XL

*CAP
1 *6 0.000200568
2 *127:B 0.000149907
3 *6:2 0.000350475313

*RES
1 *127:B *6:2 4.86505032
2 *6:2 *6 2.74075
*END

*D_NET *7 0.00110626

*CONN
*P *7 I *C 42.63 17.835 *L 0
*I *107:AN I *C 31.755 17.835 *L 0.00189 *D NAND4BXL

*CAP
1 *7 0.000553131094
2 *107:AN 0.000553131094

*RES
1 *107:AN *7 7.70116
*END

*D_NET *8 0.00114381

*CONN
*P *8 I *C 42.63 19.285 *L 0
*I *119:B I *C 33.205 20.445 *L 0.00182 *D OR3XL
*I *115:B I *C 33.205 18.125 *L 0.00175 *D NAND3BXL

*CAP
1 *8 2.95605e-05
2 *115:B 0.000107947
3 *119:B 4.96537e-05
4 *8:3 0.000414311
5 *8:4 0.000542342656

*RES
1 *119:B *8:4 1.71517
2 *8:4 *8:3 5.72562218
3 *115:B *8:4 1.96373
4 *8:3 *8 0.340728
*END

*D_NET *9 0.00145006

*CONN
*P *9 I *C 42.63 18.995 *L 0
*I *119:A I *C 32.625 20.445 *L 0.00183 *D OR3XL
*I *115:C I *C 32.915 17.835 *L 0.00185 *D NAND3BXL

*CAP
1 *9 2.24133e-05
2 *115:C 4.1488e-05
3 *119:A 8.80401e-05
4 *9:3 0.000538406
5 *9:4 0.000614583477
6 *9:5 0.000145133

*RES
1 *9:5 *9:4 0.377236
2 *119:A *9:5 2.01942
3 *115:C *9:4 1.59086
4 *9:4 *9:3 8.82947445
5 *9:3 *9 0.255038
*END

*D_NET *10 0.00113237

*CONN
*P *10 I *C 42.63 23.055 *L 0
*I *118:C0 I *C 34.655 23.345 *L 0.00298 *D AOI211X1
*I *113:C I *C 32.335 23.055 *L 0.00176 *D OR4X1

*CAP
1 *10 0.000288246
2 *118:C0 8.57722e-05
3 *113:C 0.000192167
4 *10:3 0.000566184531

*RES
1 *113:C *10:3 3.97908688
2 *118:C0 *10:3 3.09621
3 *10:3 *10 3.36215
*END

*D_NET *11 0.00124753

*CONN
*P *11 I *C 42.63 23.055 *L 0
*I *118:B0 I *C 34.075 23.345 *L 0.00294 *D AOI211X1
*I *113:B I *C 32.045 22.765 *L 0.00177 *D OR4X1

*CAP
1 *11 0.000205039
2 *118:B0 0.000105321
3 *113:B 0.000143229
4 *11:3 0.000375212
5 *11:4 0.000418722617

*RES
1 *113:B *11:4 3.85689
2 *11:4 *11:3 4.28342819
3 *118:B0 *11:4 3.22257
4 *11:3 *11 2.49217
*END

*D_NET *12 0.00187385

*CONN
*P *12 I *C 42.63 23.345 *L 0
*I *118:A0 I *C 33.44 23.3575 *L 0.0028 *D AOI211X1
*I *113:A I *C 31.175 23.345 *L 0.0018 *D OR4X1

*CAP
1 *118:A0 0.000174104
2 *12 0.000538345
3 *113:A 5.85863e-05
4 *12:3 0.000704228906
5 *12:4 0.000398574

*RES
1 *12:4 *12:3 6.69622421
2 *113:A *12:4 3.09625
3 *12:3 *12 4.48074
4 *118:A0 *12:4 4.08184
*END

*D_NET *13 0.000816941

*CONN
*P *13 I *C 42.63 25.955 *L 0
*I *129:A I *C 33.205 25.955 *L 0.00184 *D OR2XL

*CAP
1 *13 0.000408470625
2 *129:A 0.000408470625

*RES
1 *129:A *13 7.07972
*END

*D_NET *14 0.000992179

*CONN
*P *14 I *C 42.63 25.665 *L 0
*I *129:B I *C 32.335 25.665 *L 0.00178 *D OR2XL

*CAP
1 *14 0.000496089453
2 *129:B 0.000496089453

*RES
1 *129:B *14 10.7375
*END

*D_NET *15 0.00110912

*CONN
*P *15 I *C 42.63 18.125 *L 0
*I *107:B I *C 31.175 18.125 *L 0.00173 *D NAND4BXL

*CAP
1 *15 0.000554561602
2 *107:B 0.000554561602

*RES
1 *107:B *15 11.2346
*END

*D_NET *16 0.0028311

*CONN
*P *16 I *C 42.63 16.965 *L 0
*I *111:AN I *C 25.955 12.905 *L 0.00189 *D NOR3BX1
*I *105:B I *C 25.955 20.155 *L 0.00301 *D NAND2BX1
*I *101:A I *C 25.085 18.125 *L 0.00276 *D NOR3X1

*CAP
1 *16 0.000110269
2 *105:B 7.50386e-05
3 *111:AN 0.000311909
4 *101:A 0.000215888
5 *16:4 0.000692725156
6 *16:5 0.000607074
7 *16:6 0.000431892
8 *16:7 0.000386302

*RES
1 *101:A *16:7 5.73381
2 *111:AN *16:6 3.20662
3 *16:6 *16:5 1.50742
4 *16:5 *16:4 6.55281544
5 *16:7 *16:6 0.634324
6 *105:B *16:7 1.96376
7 *16:4 *16 1.30494
*END

*D_NET *17 0.00198531

*CONN
*P *17 I *C 13.775 40.89 *L 0
*I *123:B1 I *C 12.615 33.495 *L 0.00299 *D OAI22X1
*I *116:A1 I *C 12.615 30.595 *L 0.00285 *D AOI221X1
*I *89:SI I *C 16.095 25.665 *L 0.00285 *D SDFFSHQX1

*CAP
1 *89:SI 0.000461164
2 *17 0.000173927
3 *116:A1 1.51994e-05
4 *123:B1 1.43042e-05
5 *17:4 0.000354235
6 *17:5 0.000624120234
7 *17:6 0.000342369

*RES
1 *123:B1 *17:6 1.4537
2 *17:5 *17:6 1.00724
3 *17:6 *17:4 1.71419
4 *116:A1 *17:5 1.4537
5 *17:4 *17 2.08071
6 *89:SI *17:5 7.73859024
*END

*D_NET *18 0.00120759

*CONN
*P *18 I *C 33.205 40.89 *L 0
*I *131:B I *C 33.205 33.495 *L 0.00176 *D NAND2XL
*I *121:A1 I *C 31.755 33.205 *L 0.00176 *D OAI21XL
*I *92:SI I *C 34.365 30.885 *L 0.00292 *D SDFFRHQX1

*CAP
1 *92:SI 0.000196336
2 *18 0.000239787
3 *131:B 2.38417e-05
4 *121:A1 0.000121831
5 *18:4 0.000242175
6 *18:5 0.000383615508

*RES
1 *121:A1 *18:5 2.39228
2 *131:B *18:4 1.45375
3 *18:4 *18:5 0.222782
4 *18:5 *18 2.95067
5 *92:SI *18:4 3.04806232
*END

*D_NET *19 0.00199318

*CONN
*P *19 I *C 13.485 40.89 *L 0
*I *123:A1 I *C 12.035 33.495 *L 0.00294 *D OAI22X1
*I *116:B1 I *C 12.035 30.595 *L 0.00285 *D AOI221X1
*I *88:SI I *C 16.095 28.275 *L 0.00285 *D SDFFSHQX1

*CAP
1 *88:SI 0.000215889
2 *19 0.000202357
3 *123:A1 2.36062e-05
4 *116:B1 2.34252e-05
5 *19:4 0.000365314
6 *19:5 0.000395357617
7 *19:6 0.00039178
8 *19:7 0.000375449

*RES
1 *19:7 *19:6 2.51463
2 *116:B1 *19:6 1.45377
3 *19:6 *19:5 1.00722
4 *19:5 *19:4 3.91066
5 *123:A1 *19:5 1.45377
6 *19:4 *19 2.61643
7 *88:SI *19:7 4.72474098
*END

*D_NET *20 0.00194669

*CONN
*P *20 I *C 28.855 40.89 *L 0
*I *130:B I *C 27.695 33.495 *L 0.00176 *D NAND2XL
*I *120:A1 I *C 26.535 33.205 *L 0.00176 *D OAI21XL
*I *91:SI I *C 32.045 28.275 *L 0.00292 *D SDFFRHQX1

*CAP
1 *91:SI 0.000545438
2 *130:B 1.44869e-05
3 *20 5.41795e-05
4 *120:A1 0.000109432
5 *20:4 0.000282884
6 *20:5 0.000581026094
7 *20:6 0.000359237

*RES
1 *120:A1 *20:6 2.29797
2 *20:5 *20:6 0.22281
3 *20:6 *20:4 2.76433
4 *20:4 *20 0.743581
5 *130:B *20:5 1.45373
6 *91:SI *20:5 8.23581219
*END

*D_NET *21 0.00227332

*CONN
*P *21 I *C 28.275 0 *L 0
*I *132:A I *C 26.825 9.715 *L 0.00171 *D NOR2XL
*I *122:D I *C 31.755 7.685 *L 0.00293 *D SDFFRHQX1
*I *111:B I *C 26.535 12.615 *L 0.00288 *D NOR3BX1
*I *99:A I *C 27.985 14.935 *L 0.00276 *D NOR3X1

*CAP
1 *122:D 0.00024211
2 *21 0.000351133
3 *99:A 0.000226617
4 *132:A 2.10402e-05
5 *111:B 1.7044e-05
6 *21:5 0.00071555375
7 *21:6 0.00029975
8 *21:7 0.00040007

*RES
1 *21:7 *21:6 1.37564
2 *111:B *21:7 1.45377
3 *132:A *21:6 1.45377
4 *21:6 *21:5 1.0607
5 *99:A *21:7 3.16151
6 *21:5 *21 3.6107
7 *122:D *21:5 6.11007214
*END

*D_NET *22 0.00160182

*CONN
*P *22 O *C 29.145 0 *L 0.01
*I *93:B I *C 30.6 12.275 *L 0.00174 *D MXI2XL
*I *83:Q O *C 27.695 9.425 *L 0 *D DFFRHQX1

*CAP
1 *93:B 0.000103239
2 *83:Q 0.000105622
3 *22 0.000482439
4 *22:3 0.000186623
5 *22:4 0.000215233
6 *22:5 0.000508666055

*RES
1 *22 *22:5 4.48071957
2 *22:5 *22:4 1.50743
3 *22:4 *83:Q 3.60619
4 *22:3 *22:4 2.01747
5 *93:B *22:3 2.0881
*END

*D_NET *23 0.00127113

*CONN
*P *23 O *C 17.545 40.89 *L 0.01
*I *87:Q O *C 17.545 25.085 *L 0 *D DFFRHQX1

*CAP
1 *23 0.000528274
2 *87:Q 0.00010729
3 *23:2 0.000635564336

*RES
1 *23:2 *87:Q 4.73861
2 *23 *23:2 6.22069836
*END

*D_NET *24 0.0014993

*CONN
*P *24 O *C 42.63 24.505 *L 0.01
*I *139:A0 I *C 27.405 25.375 *L 0.00165 *D AO21X1
*I *85:Q O *C 30.305 23.635 *L 0 *D DFFRHQX1

*CAP
1 *24 0.000533637
2 *85:Q 6.18671e-05
3 *139:A0 0.000125885
4 *24:3 0.000623762617
5 *24:4 0.000154135

*RES
1 *139:A0 *24:4 1.84827
2 *24:3 *85:Q 1.83934
3 *24:4 *24:3 1.59086
4 *24 *24:3 7.30919838
*END

*D_NET *25 0.00308263

*CONN
*P *25 O *C 29.435 0 *L 0.01
*I *136:Q O *C 26.245 15.805 *L 0 *D DFFRX1
*I *132:B I *C 26.535 10.005 *L 0.00181 *D NOR2XL
*I *122:SE I *C 33.205 7.685 *L 0.00514 *D SDFFRHQX1
*I *86:A I *C 31.755 12.905 *L 0.00171 *D NOR2XL

*CAP
1 *122:SE 0.000118076
2 *86:A 8.82121e-05
3 *25 0.000386717
4 *136:Q 0.000115989
5 *132:B 0.000111936
6 *25:5 0.000294923
7 *25:6 0.000280734
8 *25:7 0.000304101
9 *25:8 0.000413064
10 *25:9 0.000532269492
11 *25:10 0.000436601

*RES
1 *132:B *25:10 3.23333
2 *25:10 *25:9 5.0163269
3 *25:9 *136:Q 3.35764
4 *25 *25:8 4.23214
5 *25:7 *25:10 0.882848
6 *25:8 *25:7 1.50744
7 *25:6 *25:9 3.38458
8 *86:A *25:6 2.21225
9 *122:SE *25:5 2.42236
10 *25:5 *25:7 3.11944
*END

*D_NET *26 0.00142992

*CONN
*P *26 O *C 28.855 0 *L 0.01
*I *122:SI I *C 33.205 7.395 *L 0.00292 *D SDFFRHQX1
*I *122:Q O *C 24.795 7.975 *L 0 *D SDFFRHQX1

*CAP
1 *122:SI 0.000209213
2 *122:Q 0.000198423
3 *26 0.000307322
4 *26:3 0.000714957734

*RES
1 *26 *26:3 4.74108
2 *26:3 *122:Q 4.72474
3 *122:SI *26:3 4.89032269
*END

*D_NET *27 0.00137067

*CONN
*I *128:A I *C 16.095 14.935 *L 0.00171 *D NOR2XL
*I *94:A I *C 10.875 20.445 *L 0.00166 *D NAND2XL
*I *90:A0 I *C 11.165 15.225 *L 0.00171 *D OAI31XL
*I *84:Q O *C 14.645 18.415 *L 0 *D DFFRHQX1

*CAP
1 *128:A 6.77131e-05
2 *84:Q 8.51738e-05
3 *90:A0 1.90714e-05
4 *94:A 0.000354709
5 *27:4 0.000108957
6 *27:5 8.31493e-05
7 *27:6 0.000158667
8 *27:7 0.000493228438

*RES
1 *94:A *27:7 5.95545769
2 *90:A0 *27:7 0.300245
3 *27:7 *27:6 1.80819
4 *27:5 *27:6 0.233544
5 *27:6 *27:4 1.63726
6 *27:4 *84:Q 2.08799
7 *128:A *27:5 1.0076
*END

*D_NET *28 0.0015105

*CONN
*I *138:Q O *C 14.065 22.475 *L 0 *D DFFRX1
*I *128:B I *C 16.385 15.225 *L 0.00181 *D NOR2XL
*I *97:B0 I *C 18.415 17.835 *L 0.00171 *D OAI22XL

*CAP
1 *138:Q 0.000465034
2 *97:B0 1.29892e-05
3 *128:B 6.59872e-05
4 *28:3 0.000689268125
5 *28:4 0.000277222

*RES
1 *28:4 *28:3 4.15921
2 *128:B *28:4 1.96368
3 *97:B0 *28:3 1.45374
4 *28:3 *138:Q 8.507967
*END

*D_NET *29 0.00158358

*CONN
*I *140:A0N I *C 16.095 12.615 *L 0.00188 *D AOI2BB1XL
*I *108:C I *C 11.745 7.685 *L 0.00306 *D NAND3BX1
*I *104:A I *C 12.615 12.615 *L 0.00166 *D NAND2XL
*I *103:A0 I *C 12.035 12.615 *L 0.00171 *D OAI31XL
*I *96:Q O *C 14.645 9.425 *L 0 *D DFFRHQX1

*CAP
1 *96:Q 6.52038e-05
2 *140:A0N 6.5564e-05
3 *104:A 2.46719e-05
4 *108:C 0.000198604
5 *29:5 9.6203e-05
6 *29:6 0.000129161
7 *29:7 0.000398815
8 *29:8 0.000605344766

*RES
1 *108:C *29:8 2.83374
2 *29:8 *29:7 5.19633293
3 *29:6 *29:8 2.17793
4 *103:A0 *29:6 0.500001
5 *104:A *29:6 0.30027
6 *140:A0N *29:7 1.83936
7 *29:5 *96:Q 0.880751
8 *29:7 *29:5 1.59087
*END

*D_NET *30 0.000535011

*CONN
*I *137:Q O *C 15.225 6.815 *L 0 *D DFFRX1
*I *108:B I *C 11.455 7.685 *L 0.00293 *D NAND3BX1

*CAP
1 *137:Q 5.97831e-05
2 *108:B 0.000207723
3 *30:2 0.000267505645

*RES
1 *108:B *30:2 4.60040569
2 *30:2 *137:Q 3.09623
*END

*D_NET *31 0.00175405

*CONN
*I *133:A I *C 16.095 30.595 *L 0.0029 *D CLKINVX1
*I *124:A I *C 16.965 30.885 *L 0.00179 *D MXI2XL
*I *89:Q O *C 7.685 25.085 *L 0 *D SDFFSHQX1
*I *89:D I *C 14.645 25.375 *L 0.00296 *D SDFFSHQX1

*CAP
1 *124:A 0.000143645
2 *133:A 5.88908e-05
3 *89:Q 0.000310417
4 *89:D 7.61196e-05
5 *31:4 0.000490486
6 *31:5 0.000674486172

*RES
1 *89:D *31:5 3.0962
2 *31:5 *89:Q 6.02757931
3 *31:4 *31:5 3.70166
4 *133:A *31:4 1.9468
5 *124:A *31:4 2.39232
*END

*D_NET *32 0.00209069

*CONN
*I *131:A I *C 32.625 33.495 *L 0.00166 *D NAND2XL
*I *126:A I *C 21.605 30.8375 *L 0.00187 *D XNOR2XL
*I *121:A0 I *C 32.045 33.495 *L 0.00174 *D OAI21XL
*I *92:Q O *C 25.955 30.305 *L 0 *D SDFFRHQX1
*I *92:D I *C 32.915 30.595 *L 0.00293 *D SDFFRHQX1

*CAP
1 *92:D 7.64738e-05
2 *131:A 7.45105e-05
3 *121:A0 3.88032e-05
4 *92:Q 0.000136854
5 *126:A 0.000121714
6 *32:5 0.000232574
7 *32:6 0.000618576992
8 *32:7 0.000191751
9 *32:8 0.000599444

*RES
1 *126:A *32:8 3.48189
2 *32:7 *92:Q 2.04171
3 *32:8 *32:7 3.09621
4 *32:6 *32:8 4.08005714
5 *32:5 *32:6 2.32174
6 *121:A0 *32:5 1.64663
7 *131:A *32:5 2.01942
8 *92:D *32:6 3.35763
*END

*D_NET *33 0.00152934

*CONN
*I *134:A I *C 10.585 30.595 *L 0.0029 *D CLKINVX1
*I *125:A I *C 11.165 33.495 *L 0.00179 *D MXI2XL
*I *88:Q O *C 7.685 28.855 *L 0 *D SDFFSHQX1
*I *88:D I *C 14.645 28.565 *L 0.00296 *D SDFFSHQX1

*CAP
1 *88:D 0.000298438
2 *125:A 0.000198303
3 *88:Q 0.000220299
4 *134:A 1.32343e-05
5 *33:4 0.000553131094
6 *33:5 0.000245932

*RES
1 *134:A *33:5 1.45377
2 *33:4 *88:Q 6.12083
3 *33:5 *33:4 0.261457
4 *125:A *33:5 3.01369
5 *88:D *33:4 6.88147545
*END

*D_NET *34 0.00235105

*CONN
*I *130:A I *C 28.275 33.495 *L 0.00166 *D NAND2XL
*I *127:A I *C 21.315 33.5425 *L 0.00187 *D XNOR2XL
*I *120:A0 I *C 26.825 33.495 *L 0.00174 *D OAI21XL
*I *91:Q O *C 23.635 28.855 *L 0 *D SDFFRHQX1
*I *91:D I *C 30.595 28.565 *L 0.00293 *D SDFFRHQX1

*CAP
1 *91:D 0.000199374
2 *130:A 7.31957e-05
3 *120:A0 9.48329e-05
4 *91:Q 9.51259e-05
5 *127:A 4.65539e-05
6 *34:5 0.000318171
7 *34:6 0.000252901
8 *34:7 0.000415087
9 *34:8 0.000322525
10 *34:9 0.000533282773

*RES
1 *127:A *34:9 1.71517
2 *34:8 *91:Q 1.46125
3 *34:9 *34:8 3.20662
4 *34:7 *34:9 3.84318829
5 *120:A0 *34:7 3.28257
6 *130:A *34:6 3.22258
7 *34:6 *34:7 0.595689
8 *34:5 *34:6 2.59815
9 *91:D *34:5 2.95804
*END

*D_NET *35 0.00109184

*CONN
*I *136:QN O *C 27.405 14.645 *L 0 *D DFFRX1
*I *98:B0 I *C 18.125 15.225 *L 0.00179 *D OAI211XL

*CAP
1 *136:QN 2.22922e-05
2 *98:B0 0.000413476
3 *35:2 0.000132443
4 *35:3 0.000523626797

*RES
1 *98:B0 *35:3 6.39617443
2 *35:3 *35:2 3.59765
3 *35:2 *136:QN 0.300309
*END

*D_NET *36 0.000451446

*CONN
*I *131:Y O *C 33.205 34.075 *L 0 *D NAND2XL
*I *121:B0 I *C 31.175 33.495 *L 0.00179 *D OAI21XL

*CAP
1 *131:Y 7.67702e-05
2 *121:B0 0.000148953
3 *36:2 0.000225722793

*RES
1 *121:B0 *36:2 3.97908688
2 *36:2 *131:Y 3.09621
*END

*D_NET *37 0.000499129

*CONN
*I *130:Y O *C 27.695 34.075 *L 0 *D NAND2XL
*I *120:B0 I *C 25.955 33.495 *L 0.00179 *D OAI21XL

*CAP
1 *130:Y 8.54122e-05
2 *120:B0 0.000164153
3 *37:2 0.000249564648

*RES
1 *120:B0 *37:2 2.54654884
2 *37:2 *130:Y 1.80088
*END

*D_NET *38 0.000367045

*CONN
*I *128:Y O *C 16.675 15.515 *L 0 *D NOR2XL
*I *98:A1 I *C 17.835 15.225 *L 0.00179 *D OAI211XL

*CAP
1 *128:Y 0.000183522695
2 *98:A1 0.000183522695

*RES
1 *98:A1 *128:Y 4.09293
*END

*D_NET *39 0.000714183

*CONN
*I *127:Y O *C 21.895 33.785 *L 0 *D XNOR2XL
*I *117:D I *C 17.545 33.785 *L 0.00175 *D NAND4XL

*CAP
1 *127:Y 4.66695e-05
2 *117:D 0.000310422
3 *39:2 0.000357091445

*RES
1 *117:D *39:2 4.84907627
2 *39:2 *127:Y 3.09623
*END

*D_NET *40 0.000718832

*CONN
*I *126:Y O *C 22.185 30.595 *L 0 *D XNOR2XL
*I *117:A I *C 18.415 34.075 *L 0.00161 *D NAND4XL

*CAP
1 *126:Y 4.95928e-05
2 *117:A 0.000107171
3 *40:2 0.000252247
4 *40:3 0.000309824941

*RES
1 *40:3 *40:2 4.5170784
2 *117:A *40:3 2.08809
3 *40:2 *126:Y 1.80088
*END

*D_NET *41 0.000822067

*CONN
*I *125:Y O *C 10.875 34.075 *L 0 *D MXI2XL
*I *117:B I *C 18.125 34.075 *L 0.00167 *D NAND4XL

*CAP
1 *117:B 0.000368296
2 *125:Y 4.27372e-05
3 *41:2 0.000411033633

*RES
1 *41:2 *125:Y 2.98475
2 *117:B *41:2 6.09183311
*END

*D_NET *42 0.00053978

*CONN
*I *124:Y O *C 17.255 30.305 *L 0 *D MXI2XL
*I *117:C I *C 17.835 33.785 *L 0.00174 *D NAND4XL

*CAP
1 *124:Y 0.000140906
2 *117:C 0.000128984
3 *42:2 0.000269889824

*RES
1 *117:C *42:2 2.1738
2 *42:2 *124:Y 2.32803822
*END

*D_NET *43 0.00121927

*CONN
*I *133:Y O *C 16.4675 30.595 *L 0 *D CLKINVX1
*I *124:B I *C 18.13 31.225 *L 0.00174 *D MXI2XL
*I *123:B0 I *C 12.905 33.785 *L 0.00279 *D OAI22X1
*I *116:A0 I *C 13.195 30.595 *L 0.00281 *D AOI221X1

*CAP
1 *124:B 0.000198066
2 *133:Y 4.59519e-05
3 *116:A0 0.000141443
4 *123:B0 3.43944e-05
5 *43:4 0.000433802617
6 *43:5 0.000365616

*RES
1 *123:B0 *43:5 0.493752
2 *116:A0 *43:5 4.21491
3 *43:5 *43:4 3.78022
4 *43:4 *133:Y 1.7152
5 *124:B *43:4 5.45215607
*END

*D_NET *44 0.00118017

*CONN
*I *134:Y O *C 10.2125 30.595 *L 0 *D CLKINVX1
*I *125:B I *C 10 33.155 *L 0.00174 *D MXI2XL
*I *123:A0 I *C 11.745 33.495 *L 0.00282 *D OAI22X1
*I *116:B0 I *C 11.745 30.595 *L 0.00291 *D AOI221X1

*CAP
1 *116:B0 0.000232877
2 *123:A0 2.3664e-05
3 *125:B 2.24729e-05
4 *134:Y 1.9492e-05
5 *44:4 0.000413000586
6 *44:5 0.000314059
7 *44:6 0.000154613

*RES
1 *44:6 *134:Y 0.300304
2 *125:B *44:5 1.45373
3 *44:5 *44:6 2.64512
4 *123:A0 *44:4 1.45373
5 *116:B0 *44:4 2.46081
6 *44:4 *44:5 3.83341312
*END

*D_NET *45 0.00052619

*CONN
*I *123:Y O *C 12.325 32.915 *L 0 *D OAI22X1
*I *116:C0 I *C 11.455 30.885 *L 0.00294 *D AOI221X1

*CAP
1 *123:Y 8.79753e-05
2 *116:C0 0.00017512
3 *45:2 0.000263094902

*RES
1 *116:C0 *45:2 4.99153137
2 *45:2 *123:Y 1.71515
*END

*D_NET *46 0.000700474

*CONN
*I *121:Y O *C 30.885 34.075 *L 0 *D OAI21XL
*I *100:A0 I *C 25.085 33.495 *L 0.00279 *D AOI31X1

*CAP
1 *121:Y 6.02608e-05
2 *100:A0 0.000239251
3 *46:2 0.000110982
4 *46:3 0.000289976602

*RES
1 *100:A0 *46:3 4.84907627
2 *46:2 *121:Y 0.880715
3 *46:3 *46:2 3.09623
*END

*D_NET *47 0.000218987

*CONN
*I *120:Y O *C 25.665 34.075 *L 0 *D OAI21XL
*I *100:A1 I *C 24.795 33.785 *L 0.00286 *D AOI31X1

*CAP
1 *120:Y 6.37181e-05
2 *100:A1 4.57757e-05
3 *47:2 0.00010949373

*RES
1 *100:A1 *47:2 1.67655
2 *47:2 *120:Y 1.79445744
*END

*D_NET *48 0.000616431

*CONN
*I *129:Y O *C 33.785 25.085 *L 0 *D OR2XL
*I *119:C I *C 33.495 20.155 *L 0.00175 *D OR3XL
*I *118:A1 I *C 33.785 23.345 *L 0.00296 *D AOI211X1

*CAP
1 *118:A1 2.265e-05
2 *129:Y 0.000119209
3 *119:C 0.000166357
4 *48:3 0.000308215625

*RES
1 *119:C *48:3 2.60436535
2 *48:3 *129:Y 2.2123
3 *118:A1 *48:3 1.45375
*END

*D_NET *49 0.000378847

*CONN
*I *119:Y O *C 32.045 19.575 *L 0 *D OR3XL
*I *113:D I *C 32.765 22.98 *L 0.00173 *D OR4X1

*CAP
1 *113:D 0.000129401
2 *119:Y 6.00224e-05
3 *49:2 0.000189423555

*RES
1 *49:2 *119:Y 1.98519
2 *113:D *49:2 2.29799747
*END

*D_NET *50 0.000709414

*CONN
*I *118:Y O *C 34.075 23.635 *L 0 *D AOI211X1
*I *115:AN I *C 34.075 17.545 *L 0.00185 *D NAND3BXL

*CAP
1 *118:Y 0.000122189
2 *115:AN 0.000134529
3 *50:2 0.000220178
4 *50:3 0.000232517715

*RES
1 *115:AN *50:3 2.42233276
2 *50:3 *50:2 0.990024
3 *50:2 *118:Y 2.29799
*END

*D_NET *51 0.00178993

*CONN
*I *116:Y O *C 12.035 30.305 *L 0 *D AOI221X1
*I *100:A2 I *C 24.215 33.785 *L 0.00293 *D AOI31X1

*CAP
1 *100:A2 0.00022257
2 *116:Y 0.000672394
3 *51:2 0.00089496375

*RES
1 *51:2 *116:Y 10.451436
2 *100:A2 *51:2 2.79514
*END

*D_NET *52 0.000357747

*CONN
*I *115:Y O *C 32.625 17.255 *L 0 *D NAND3BXL
*I *107:C I *C 30.595 18.125 *L 0.00173 *D NAND4BXL

*CAP
1 *115:Y 9.95425e-06
2 *107:C 0.000168919
3 *52:2 0.000178873535

*RES
1 *107:C *52:2 4.35423851
2 *52:2 *115:Y 0.143378
*END

*D_NET *53 0.000373125

*CONN
*I *113:Y O *C 30.595 23.635 *L 0 *D OR4X1
*I *107:D I *C 30.305 18.125 *L 0.00184 *D NAND4BXL

*CAP
1 *113:Y 5.25117e-05
2 *107:D 0.000121117
3 *53:2 6.54453e-05
4 *53:3 0.00013405085

*RES
1 *107:D *53:3 2.64084339
2 *53:3 *53:2 0.154253
3 *53:2 *113:Y 1.9251
*END

*D_NET *54 0.000503302

*CONN
*I *111:Y O *C 27.405 13.195 *L 0 *D NOR3BX1
*I *93:S0 I *C 30.305 12.615 *L 0.00391 *D MXI2XL

*CAP
1 *93:S0 0.000170052
2 *111:Y 8.15988e-05
3 *54:2 0.000251650801

*RES
1 *54:2 *111:Y 3.6681
2 *93:S0 *54:2 3.97908688
*END

*D_NET *55 0.00151443

*CONN
*I *140:A1N I *C 16.675 12.905 *L 0.00185 *D AOI2BB1XL
*I *114:Y O *C 24.2975 9.715 *L 0 *D CLKINVX1
*I *110:B I *C 25.085 10.005 *L 0.00176 *D NAND2XL

*CAP
1 *110:B 0.000152708
2 *114:Y 0.000117539
3 *140:A1N 0.00039804
4 *55:3 0.000214635
5 *55:4 0.000144542
6 *55:5 0.000486969961

*RES
1 *140:A1N *55:5 6.46686554
2 *55:4 *114:Y 2.21233
3 *55:5 *55:4 1.50738
4 *55:3 *55:5 1.76888
5 *110:B *55:3 2.08809
*END

*D_NET *56 0.00153327

*CONN
*I *132:Y O *C 26.245 10.295 *L 0 *D NOR2XL
*I *112:A I *C 23.635 10.005 *L 0.00166 *D NAND2XL
*I *110:A I *C 25.665 10.005 *L 0.00166 *D NAND2XL
*I *109:B0 I *C 18.705 12.615 *L 0.0029 *D OAI2BB1X1
*I *106:A I *C 20.735 10.005 *L 0.00179 *D MXI2XL

*CAP
1 *132:Y 7.3313e-05
2 *110:A 5.37049e-05
3 *112:A 7.98719e-05
4 *106:A 4.30335e-05
5 *109:B0 0.000156644
6 *56:5 0.000244799
7 *56:6 0.000345528125
8 *56:7 0.000285328
9 *56:8 0.000251057

*RES
1 *109:B0 *56:8 3.85475159
2 *106:A *56:7 1.71516
3 *56:7 *56:6 2.63891
4 *56:8 *56:7 2.14171
5 *112:A *56:6 3.22257
6 *56:6 *56:5 1.09721
7 *110:A *56:5 2.98082
8 *56:5 *132:Y 3.23333
*END

*D_NET *57 0.000689745

*CONN
*I *140:B0 I *C 15.515 12.325 *L 0.0018 *D AOI2BB1XL
*I *109:Y O *C 17.835 12.905 *L 0 *D OAI2BB1X1
*I *104:B I *C 13.195 12.615 *L 0.00176 *D NAND2XL

*CAP
1 *109:Y 1.92535e-05
2 *140:B0 5.73382e-05
3 *104:B 0.000142158
4 *57:3 0.000145378
5 *57:4 0.000325620176

*RES
1 *104:B *57:4 3.86762619
2 *57:4 *57:3 3.73254
3 *140:B0 *57:4 3.09624
4 *57:3 *109:Y 0.30027
*END

*D_NET *58 0.00199532

*CONN
*I *137:QN O *C 14.065 7.975 *L 0 *D DFFRX1
*I *109:A0N I *C 18.995 12.905 *L 0.00183 *D OAI2BB1X1
*I *106:S0 I *C 19.865 10.005 *L 0.00391 *D MXI2XL
*I *103:A1 I *C 11.455 12.615 *L 0.00177 *D OAI31XL

*CAP
1 *106:S0 2.33597e-05
2 *109:A0N 0.000100848
3 *137:QN 4.26788e-05
4 *103:A1 0.000267923
5 *58:4 0.000489893
6 *58:5 0.000159618
7 *58:6 0.000139003
8 *58:7 0.000771999375

*RES
1 *103:A1 *58:7 3.68699
2 *58:6 *137:QN 0.687261
3 *58:7 *58:6 2.21229
4 *109:A0N *58:5 2.01939
5 *58:5 *58:4 0.501381
6 *58:4 *58:7 5.8991909
7 *106:S0 *58:4 1.45373
*END

*D_NET *59 0.000352144

*CONN
*I *137:D I *C 21.315 7.685 *L 0.00177 *D DFFRX1
*I *106:Y O *C 20.445 9.425 *L 0 *D MXI2XL

*CAP
1 *106:Y 9.0896e-05
2 *137:D 8.51761e-05
3 *59:2 0.000176072129

*RES
1 *137:D *59:2 2.05850601
2 *59:2 *106:Y 2.04946
*END

*D_NET *60 0.00136983

*CONN
*I *110:Y O *C 25.085 9.425 *L 0 *D NAND2XL
*I *105:AN I *C 25.085 20.155 *L 0.00188 *D NAND2BX1
*I *101:B I *C 25.375 18.125 *L 0.00289 *D NOR3X1

*CAP
1 *101:B 2.22923e-05
2 *105:AN 0.000186804
3 *110:Y 0.000475821
4 *60:3 0.000684916953

*RES
1 *60:3 *110:Y 4.87375259
2 *105:AN *60:3 2.54657
3 *101:B *60:3 1.51583
*END

*D_NET *61 0.00058651

*CONN
*I *104:Y O *C 13.195 13.195 *L 0 *D NAND2XL
*I *103:B0 I *C 10.875 12.905 *L 0.00177 *D OAI31XL

*CAP
1 *104:Y 2.11005e-05
2 *103:B0 0.000190079
3 *61:2 0.000103177
4 *61:3 0.000272154805

*RES
1 *103:B0 *61:3 4.35185432
2 *61:2 *104:Y 0.300279
3 *61:3 *61:2 3.09622
*END

*D_NET *62 0.0029552

*CONN
*I *112:Y O *C 23.055 9.425 *L 0 *D NAND2XL
*I *108:AN I *C 10.585 7.685 *L 0.00187 *D NAND3BX1
*I *106:B I *C 19.57 10.345 *L 0.00174 *D MXI2XL
*I *103:A2 I *C 11.165 12.615 *L 0.00181 *D OAI31XL
*I *98:A0 I *C 17.52 15.2975 *L 0.00171 *D OAI211XL

*CAP
1 *112:Y 2.12776e-05
2 *106:B 8.42832e-05
3 *98:A0 0.000304042
4 *103:A2 0.000135002
5 *108:AN 0.000315125
6 *62:5 0.000182691
7 *62:6 0.000333434
8 *62:7 0.000325624
9 *62:8 0.000456453
10 *62:9 0.000797271719

*RES
1 *108:AN *62:9 5.7501
2 *62:9 *62:8 4.13038
3 *103:A2 *62:9 2.21231
4 *98:A0 *62:7 6.74009323
5 *62:8 *62:6 0.972817
6 *62:7 *62:8 1.50741
7 *106:B *62:6 3.09627
8 *62:6 *62:5 4.10334
9 *62:5 *112:Y 0.300309
*END

*D_NET *63 0.000472188

*CONN
*I *103:Y O *C 10.585 12.325 *L 0 *D OAI31XL
*I *96:D I *C 7.975 9.715 *L 0.00245 *D DFFRHQX1

*CAP
1 *96:D 0.000116707
2 *103:Y 0.000109673
3 *63:2 0.000126421455
4 *63:3 0.000119388

*RES
1 *63:3 *103:Y 1.65473
2 *63:2 *63:3 1.45376
3 *96:D *63:2 2.46083736
*END

*D_NET *64 0.00426149

*CONN
*I *117:Y O *C 17.255 34.075 *L 0 *D NAND4XL
*I *114:A I *C 23.925 9.715 *L 0.0029 *D CLKINVX1
*I *112:B I *C 23.055 10.005 *L 0.00176 *D NAND2XL
*I *111:C I *C 27.115 12.905 *L 0.00308 *D NOR3BX1
*I *109:A1N I *C 19.575 12.615 *L 0.0018 *D OAI2BB1X1
*I *102:A1N I *C 16.385 18.125 *L 0.00182 *D OAI2BB1XL
*I *99:B I *C 28.275 14.935 *L 0.00289 *D NOR3X1

*CAP
1 *99:B 9.77522e-05
2 *111:C 1.62138e-05
3 *114:A 0.000133272
4 *112:B 1.48465e-05
5 *117:Y 9.25075e-05
6 *102:A1N 9.76297e-05
7 *64:7 0.000220595
8 *64:8 0.000369367
9 *64:9 0.000496985
10 *64:10 0.000265298
11 *64:11 0.000362693
12 *64:12 0.000381948
13 *64:13 0.000185076
14 *64:14 0.000668704531
15 *64:15 0.000603441
16 *64:16 0.000255166

*RES
1 *102:A1N *64:16 3.35981
2 *64:16 *64:15 1.5074
3 *64:15 *64:14 6.4971447
4 *64:14 *64:13 3.38568
5 *64:13 *117:Y 1.96374
6 *109:A1N *64:12 0.499956
7 *64:12 *64:11 3.33086
8 *64:11 *64:16 2.51465
9 *64:10 *64:9 1.00725
10 *64:9 *64:12 3.49097
11 *112:B *64:10 1.45377
12 *114:A *64:10 2.39658
13 *64:8 *64:9 4.77848
14 *111:C *64:8 1.45377
15 *64:7 *64:8 0.998623
16 *99:B *64:7 2.04949
*END

*D_NET *65 0.00075841

*CONN
*I *102:Y O *C 14.965 18.21 *L 0 *D OAI2BB1XL
*I *94:B I *C 10.295 20.445 *L 0.00176 *D NAND2XL

*CAP
1 *102:Y 0.000115873
2 *94:B 0.00023961
3 *65:2 0.000139593
4 *65:3 0.00026333332

*RES
1 *94:B *65:3 4.97329235
2 *65:2 *102:Y 2.33662
3 *65:3 *65:2 1.50741
*END

*D_NET *66 0.000909448

*CONN
*I *107:Y O *C 30.595 17.545 *L 0 *D NAND4BXL
*I *101:C I *C 25.665 17.835 *L 0.00295 *D NOR3X1
*I *99:C I *C 28.565 15.225 *L 0.00295 *D NOR3X1

*CAP
1 *99:C 0.000113903
2 *107:Y 5.88289e-05
3 *101:C 0.000262915
4 *66:3 0.000132979